Version 4
SHEET 1 880 680
WIRE -48 -144 -240 -144
WIRE 704 -128 544 -128
WIRE -240 -80 -240 -144
WIRE 704 -80 704 -128
WIRE -48 -16 -48 -144
WIRE 544 -16 544 -128
WIRE -240 48 -240 0
WIRE 704 48 704 0
WIRE -48 96 -48 64
WIRE 192 96 -48 96
WIRE 544 112 544 64
WIRE 672 112 544 112
WIRE 688 112 672 112
WIRE 144 192 112 192
WIRE 192 192 192 96
WIRE 192 192 144 192
WIRE 208 192 192 192
WIRE 384 192 320 192
WIRE -48 208 -48 96
WIRE -16 208 -48 208
WIRE 16 208 -16 208
WIRE 544 208 480 208
WIRE 688 208 688 112
WIRE 688 208 544 208
WIRE 160 224 112 224
WIRE 208 224 208 192
WIRE 352 224 208 224
WIRE 384 224 352 224
WIRE 160 304 160 224
WIRE 160 352 160 304
WIRE 320 384 320 192
FLAG 160 352 0
FLAG 320 384 0
FLAG -240 48 0
FLAG 704 48 0
FLAG 544 208 VD2
FLAG -16 208 VD1
FLAG -48 96 V1
FLAG 144 192 VG1
FLAG 352 224 VG2
FLAG 672 112 V2
FLAG 160 304 VS1
SYMBOL AutoGenerated\\N7002diodes 64 208 R0
SYMATTR InstName U1
SYMBOL AutoGenerated\\N7002diodes 432 208 R180
SYMATTR InstName U2
SYMBOL voltage -240 -96 R0
SYMATTR InstName V1
SYMATTR Value 10
SYMBOL voltage 704 -96 R0
SYMATTR InstName V2
SYMATTR Value 10
SYMBOL res 528 -32 R0
SYMATTR InstName R2
SYMATTR Value 0.001
SYMBOL res -64 -32 R0
SYMATTR InstName R1
SYMATTR Value 1k
