Version 4
SHEET 1 2280 1124
WIRE 2224 384 1904 384
WIRE 2224 464 2224 384
WIRE 2224 576 2224 544
WIRE 2144 592 1824 592
WIRE 2144 704 2144 592
WIRE 2144 704 2080 704
WIRE 1904 720 1904 384
WIRE 1984 720 1904 720
WIRE 2208 736 2080 736
WIRE 1824 784 1824 592
WIRE 2208 832 2208 736
WIRE 1824 896 1824 864
FLAG 1824 896 0
FLAG 2208 832 0
FLAG 2224 576 0
SYMBOL AutoGenerated\\N7002diodes 2032 720 R0
SYMATTR InstName U1
SYMBOL voltage 1824 768 R0
SYMATTR InstName V1
SYMATTR Value 2
SYMBOL voltage 2224 448 R0
SYMATTR InstName V2
SYMATTR Value 10
TEXT 152 296 Left 2 !*---------- 2N7002 Spice Model ----------\n.SUBCKT N7002diodes 10 20 30\n*     TERMINALS:  D  G  S\nM1 1 2 3 3 NMOS L = 1E-006 W = 1E-006\nRD 10 1 0.976\nRS 30 3 0.001\nRG 20 2 160.6\nCGS 2 3 2E-011\nEGD 12 0 2 1 1\nVFB 14 0 0\nFFB 2 1 VFB 1\nCGD 13 14 5.9E-011\nR1 13 0 1\nD1 12 13 DLIM\nDDG 15 14 DCGD\nR2 12 15 1\nD2 15 0 DLIM\nDSD 3 10 DSUB\n.MODEL NMOS NMOS LEVEL = 3 VMAX = 1E+006 ETA = 0 VTO = 2.154\n+ TOX = 6E-008 NSUB = 1E+016 KP = 0.4654 KAPPA = 1E-015 U0 = 400\n.MODEL DCGD D CJO = 1.2E-011 VJ = 0.6 M = 0.6\n.MODEL DSUB D IS = 6.808E-010 N = 1.576 RS = 0.1408 BV = 72 CJO = 8E-012 VJ = 0.8 M = 0.6474\n.MODEL DLIM D IS = 0.0001\n.ENDS\n*Diodes N7002 Spice Model v0 Last Revised 2017/2/9
TEXT 1016 1088 Left 2 !.inc C:\\Users\\Siri\\Desktop\\2N7002diodes.spice.txt
