Version 4
SHEET 1 880 680
WIRE 560 -176 352 -176
WIRE 560 -144 560 -176
WIRE 352 -96 352 -176
WIRE 560 -32 560 -64
WIRE 352 16 352 -16
WIRE 432 16 352 16
WIRE 448 16 432 16
WIRE 352 48 352 16
WIRE 528 48 352 48
WIRE 320 128 256 128
WIRE 528 144 528 48
WIRE 528 144 416 144
WIRE 80 160 64 160
WIRE 320 160 80 160
WIRE 64 208 64 160
WIRE 256 224 256 128
WIRE 64 336 64 288
FLAG 64 336 0
FLAG 560 -32 0
FLAG 432 16 Vout
FLAG 80 160 Vin
FLAG 256 224 0
SYMBOL voltage 64 192 R0
WINDOW 123 0 0 Left 0
WINDOW 39 0 0 Left 0
SYMATTR InstName V1
SYMATTR Value PULSE(0 5 1n 1n 1n 0.5 1m 0)
SYMBOL voltage 560 -160 R0
SYMATTR InstName V2
SYMATTR Value 5
SYMBOL AutoGenerated\\N7002diodes 368 144 R180
SYMATTR InstName U1
SYMBOL res 336 -112 R0
SYMATTR InstName R1
SYMATTR Value 10000
TEXT 80 408 Left 2 !.tran 5m
