Version 4
SHEET 1 2328 1124
WIRE 1856 464 1712 464
WIRE 2272 464 2128 464
WIRE 2128 480 2128 464
WIRE 2272 496 2272 464
WIRE 1712 512 1712 464
WIRE 1856 512 1856 464
WIRE 2128 624 2128 560
WIRE 2128 624 1952 624
WIRE 2272 624 2272 576
WIRE 1712 640 1712 592
WIRE 2208 704 2080 704
WIRE 1856 720 1856 592
WIRE 1904 720 1856 720
WIRE 1952 720 1952 624
WIRE 1984 720 1952 720
WIRE 2112 736 2080 736
WIRE 2128 736 2112 736
WIRE 1904 816 1904 720
WIRE 2208 816 2208 704
WIRE 2208 816 1904 816
WIRE 2128 880 2128 736
WIRE 1856 896 1856 720
WIRE 2128 1008 2128 960
WIRE 1856 1024 1856 976
FLAG 1856 1024 0
FLAG 2128 1008 0
FLAG 2272 624 0
FLAG 1712 640 0
FLAG 2112 736 VS
FLAG 1904 720 VG
FLAG 1952 720 VD
SYMBOL AutoGenerated\\N7002diodes 2032 720 R0
SYMATTR InstName U1
SYMBOL voltage 1712 496 R0
SYMATTR InstName V2
SYMATTR Value 9
SYMBOL voltage 2272 480 R0
SYMATTR InstName V1
SYMATTR Value 9
SYMBOL res 1840 496 R0
SYMATTR InstName R3
SYMATTR Value 10k
SYMBOL res 2112 864 R0
SYMATTR InstName R2
SYMATTR Value 1k
SYMBOL res 1840 880 R0
SYMATTR InstName R4
SYMATTR Value 10k
SYMBOL res 2112 464 R0
SYMATTR InstName R1
SYMATTR Value 2k
TEXT 152 296 Left 2 !*---------- 2N7002 Spice Model ----------\n.SUBCKT N7002diodes 10 20 30\n*     TERMINALS:  D  G  S\nM1 1 2 3 3 NMOS L = 1E-006 W = 1E-006\nRD 10 1 0.976\nRS 30 3 0.001\nRG 20 2 160.6\nCGS 2 3 2E-011\nEGD 12 0 2 1 1\nVFB 14 0 0\nFFB 2 1 VFB 1\nCGD 13 14 5.9E-011\nR1 13 0 1\nD1 12 13 DLIM\nDDG 15 14 DCGD\nR2 12 15 1\nD2 15 0 DLIM\nDSD 3 10 DSUB\n.MODEL NMOS NMOS LEVEL = 3 VMAX = 1E+006 ETA = 0 VTO = 2.154\n+ TOX = 6E-008 NSUB = 1E+016 KP = 0.4654 KAPPA = 1E-015 U0 = 400\n.MODEL DCGD D CJO = 1.2E-011 VJ = 0.6 M = 0.6\n.MODEL DSUB D IS = 6.808E-010 N = 1.576 RS = 0.1408 BV = 72 CJO = 8E-012 VJ = 0.8 M = 0.6474\n.MODEL DLIM D IS = 0.0001\n.ENDS\n*Diodes N7002 Spice Model v0 Last Revised 2017/2/9
TEXT 1016 1088 Left 2 !.inc C:\\Users\\Siri\\Desktop\\2N7002diodes.spice.txt
