Version 4
SHEET 1 2872 680
WIRE 1856 -400 1840 -400
WIRE 1776 -384 1760 -384
WIRE 2656 -384 2640 -384
WIRE 2816 -384 2656 -384
WIRE 608 -368 480 -368
WIRE 768 -368 672 -368
WIRE 848 -368 768 -368
WIRE 1024 -368 848 -368
WIRE 1216 -368 1024 -368
WIRE 1760 -368 1760 -384
WIRE 1760 -368 1216 -368
WIRE 2080 -368 1840 -368
WIRE 2240 -368 2080 -368
WIRE 2512 -368 2320 -368
WIRE 2640 -368 2640 -384
WIRE 2640 -368 2512 -368
WIRE 1216 -352 1216 -368
WIRE 2512 -352 2512 -368
WIRE 2080 -336 2080 -368
WIRE 1120 -320 1088 -320
WIRE 2448 -288 2160 -288
WIRE 2656 -288 2656 -384
WIRE 1120 -272 1120 -320
WIRE 1216 -272 1120 -272
WIRE 1696 -256 1568 -256
WIRE 2816 -256 2816 -384
WIRE 480 -240 480 -368
WIRE 1504 -240 1312 -240
WIRE 2352 -240 2288 -240
WIRE 2448 -240 2448 -288
WIRE 2512 -240 2512 -272
WIRE 2512 -240 2448 -240
WIRE 256 -224 -96 -224
WIRE 848 -224 848 -368
WIRE 1728 -224 1568 -224
WIRE 2080 -224 2080 -256
WIRE 2224 -224 2080 -224
WIRE 2512 -224 2512 -240
WIRE 1504 -208 1408 -208
WIRE 1728 -208 1728 -224
WIRE 2352 -208 2288 -208
WIRE 1648 -192 1568 -192
WIRE 2160 -192 2160 -288
WIRE 2224 -192 2160 -192
WIRE 1216 -176 1216 -272
WIRE 2352 -176 2288 -176
WIRE 2080 -160 2080 -224
WIRE -96 -144 -96 -224
WIRE 1648 -144 1648 -192
WIRE 1712 -144 1648 -144
WIRE 1856 -144 1856 -400
WIRE 1856 -144 1792 -144
WIRE 256 -128 256 -224
WIRE 1024 -128 1024 -272
WIRE 1152 -128 1024 -128
WIRE 2352 -128 2352 -176
WIRE 2512 -128 2512 -144
WIRE 2512 -128 2352 -128
WIRE 2352 -112 2352 -128
WIRE 2656 -112 2656 -208
WIRE 2656 -112 2576 -112
WIRE 480 -96 480 -160
WIRE 848 -96 848 -160
WIRE 848 -96 480 -96
WIRE 1312 -80 1312 -240
WIRE 1312 -80 1216 -80
WIRE 480 -48 480 -96
WIRE 2656 -48 2656 -112
WIRE 2080 -32 2080 -80
WIRE 848 -16 848 -96
WIRE 1216 -16 1216 -80
WIRE 1312 -16 1312 -80
WIRE 1024 0 1024 -128
WIRE 1856 16 1856 -144
WIRE -96 32 -96 -64
WIRE 64 32 -96 32
WIRE 256 32 256 -48
WIRE 256 32 64 32
WIRE 2352 32 2352 -32
WIRE 2352 32 2032 32
WIRE 2352 64 2352 32
WIRE 2656 64 2656 32
WIRE 2816 64 2816 -176
WIRE 2816 64 2656 64
WIRE 64 80 64 32
WIRE 1216 80 1216 48
WIRE 1216 80 1024 80
WIRE 1312 80 1312 48
WIRE 1312 80 1216 80
WIRE 2656 80 2656 64
WIRE 480 96 480 32
WIRE 608 96 480 96
WIRE 768 96 768 -368
WIRE 768 96 672 96
WIRE 1024 112 1024 80
WIRE 1840 144 1840 112
WIRE 1872 144 1872 112
WIRE 2032 144 2032 32
WIRE 2032 144 1872 144
WIRE 2352 176 2352 144
WIRE 1408 272 1408 -208
WIRE 2576 272 2576 -112
WIRE 2576 272 1408 272
WIRE 96 384 16 384
WIRE 288 384 160 384
WIRE 384 384 288 384
WIRE 576 384 448 384
WIRE 736 384 576 384
WIRE 912 384 736 384
WIRE 1072 384 1008 384
WIRE 736 400 736 384
WIRE 1072 464 1072 384
WIRE 288 496 288 384
WIRE 576 496 576 384
WIRE 736 496 736 480
WIRE 960 496 960 448
WIRE 960 496 736 496
WIRE 736 512 736 496
WIRE 288 608 288 560
WIRE 576 608 576 560
WIRE 576 608 288 608
WIRE 736 608 736 576
WIRE 736 608 576 608
WIRE 1072 608 1072 528
WIRE 1072 608 736 608
WIRE 576 640 576 608
FLAG 64 80 0
FLAG 480 -368 Vin+
FLAG 576 640 0
FLAG 16 384 Vin+
FLAG 1072 384 Vcc
FLAG 1728 -208 0
FLAG 2656 80 0
FLAG 1696 -256 Vcc
FLAG 2816 -384 Vout
FLAG 848 -16 0
FLAG 1024 112 0
FLAG 1840 144 0
FLAG 2352 176 0
FLAG 2352 -208 0
FLAG 2352 -240 Vcc
FLAG 2080 -32 0
DATAFLAG 1312 80 ""
SYMBOL Misc\\signal -96 -160 R0
WINDOW 123 0 0 Left 0
WINDOW 39 24 44 Left 2
SYMATTR InstName V1
SYMATTR Value SINE(0 311 60)
SYMATTR SpiceLine Rser=0.00001
SYMBOL ind2 272 -32 R180
WINDOW 0 36 80 Left 2
WINDOW 3 36 40 Left 2
SYMATTR InstName L1
SYMATTR Value 336.11µ
SYMATTR Type ind
SYMBOL ind2 496 -144 R180
WINDOW 0 36 80 Left 2
WINDOW 3 36 40 Left 2
SYMATTR InstName L2
SYMATTR Value 1µ
SYMATTR Type ind
SYMBOL ind2 496 48 R180
WINDOW 0 36 80 Left 2
WINDOW 3 36 40 Left 2
SYMATTR InstName L3
SYMATTR Value 1µ
SYMATTR Type ind
SYMBOL diode 608 -352 R270
WINDOW 0 32 32 VTop 2
WINDOW 3 0 32 VBottom 2
SYMATTR InstName D1
SYMATTR Value d1n4007
SYMBOL diode 608 112 R270
WINDOW 0 32 32 VTop 2
WINDOW 3 0 32 VBottom 2
SYMATTR InstName D2
SYMATTR Value d1n4007
SYMBOL cap 832 -224 R0
SYMATTR InstName C1
SYMATTR Value 9.17m
SYMBOL cap 160 368 R90
WINDOW 0 0 32 VBottom 2
WINDOW 3 32 32 VTop 2
SYMATTR InstName C2
SYMATTR Value 512µ
SYMBOL diode 384 400 R270
WINDOW 0 32 32 VTop 2
WINDOW 3 0 32 VBottom 2
SYMATTR InstName D3
SYMATTR Value d1n4007
SYMBOL diode 304 560 R180
WINDOW 0 24 64 Left 2
WINDOW 3 24 0 Left 2
SYMATTR InstName D4
SYMATTR Value d1n4007
SYMBOL cap 560 496 R0
SYMATTR InstName C3
SYMATTR Value 512µ
SYMBOL zener 752 576 R180
WINDOW 0 24 64 Left 2
WINDOW 3 24 0 Left 2
SYMATTR InstName D5
SYMATTR Value UDZV27B
SYMATTR Description Diode
SYMATTR Type diode
SYMBOL res 720 384 R0
SYMATTR InstName R2
SYMATTR Value 1108
SYMBOL npn 912 448 R270
SYMATTR InstName Q1
SYMATTR Value 2N3904
SYMBOL cap 1056 464 R0
SYMATTR InstName C4
SYMATTR Value 100n
SYMBOL res 2640 -304 R0
SYMATTR InstName R3
SYMATTR Value 10k
SYMBOL res 2640 -64 R0
SYMATTR InstName R4
SYMATTR Value 20k
SYMBOL AutoGenerated\\irf540 1808 -384 R0
SYMATTR InstName U2
SYMBOL AutoGenerated\\LM324 1536 -224 R0
SYMATTR InstName U1
SYMBOL pnp 1088 -272 R180
SYMATTR InstName Q2
SYMATTR Value 2N3906
SYMBOL res 1200 -368 R0
SYMATTR InstName R1
SYMATTR Value 140
SYMBOL res 1008 -16 R0
SYMATTR InstName R6
SYMATTR Value 50k
SYMBOL pnp 1152 -176 R0
SYMATTR InstName Q3
SYMATTR Value 2N3906
SYMBOL zener 1232 48 R180
WINDOW 0 24 64 Left 2
WINDOW 3 24 0 Left 2
SYMATTR InstName D6
SYMATTR Value UDZV10B
SYMATTR Description Diode
SYMATTR Type diode
SYMBOL cap 1296 -16 R0
SYMATTR InstName C5
SYMATTR Value 100n
SYMBOL AutoGenerated\\N7002diodes 1856 64 R90
SYMATTR InstName U3
SYMBOL res 1808 -160 R90
WINDOW 0 0 56 VBottom 2
WINDOW 3 32 56 VTop 2
SYMATTR InstName R7
SYMATTR Value 10k
SYMBOL AutoGenerated\\LM324 2256 -208 R0
SYMATTR InstName U4
SYMBOL res 2336 48 R0
SYMATTR InstName R9
SYMATTR Value 10k
SYMBOL res 2336 -128 R0
SYMATTR InstName R8
SYMATTR Value 10k
SYMBOL res 2064 -352 R0
SYMATTR InstName R10
SYMATTR Value 10k
SYMBOL res 2064 -176 R0
SYMATTR InstName R11
SYMATTR Value 733.3k
SYMBOL res 2496 -368 R0
SYMATTR InstName R12
SYMATTR Value 10k
SYMBOL res 2496 -240 R0
SYMATTR InstName R13
SYMATTR Value 733.3k
SYMBOL res 2336 -384 R90
WINDOW 0 0 56 VBottom 2
WINDOW 3 32 56 VTop 2
SYMATTR InstName Rs
SYMATTR Value 60m
SYMBOL res 2800 -272 R0
SYMATTR InstName R5
SYMATTR Value 10
TEXT -232 216 Left 2 !.inc C:\\Users\\Siri\\Desktop\\1n4007diodo.txt
TEXT -72 160 Left 2 !K L1 L2 L3 1
TEXT -234 236 Left 2 !.tran 200m
TEXT -224 256 Left 2 !.inc C:\\Users\\Siri\\Documents\\LTspiceXVII\\irf540.lib
TEXT -216 288 Left 2 !.inc C:\\Users\\Siri\\Desktop\\2N7002diodes.spice.txt
